@<TRIPOS>MOLECULE
*****
 54 63 0 0 0
SMALL
GASTEIGER

@<TRIPOS>ATOM
      1 C          -2.6782    0.7860    0.0000 C.3     1  UNL1        0.1358
      2 C           0.6584   -2.7124    0.0000 C.3     1  UNL1        0.1358
      3 C           2.0198   -1.9264    0.0000 C.3     1  UNL1        0.1358
      4 C           0.6584    2.7124    0.0000 C.3     1  UNL1        0.1358
      5 C          -2.6782   -0.7860    0.0000 C.3     1  UNL1        0.1358
      6 C           2.0198    1.9264    0.0000 C.3     1  UNL1        0.1358
      7 N          -2.0413    1.1178   -1.2468 N.am    1  UNL1       -0.2471
      8 N           0.0527   -2.3267   -1.2468 N.am    1  UNL1       -0.2471
      9 N           1.9887    1.2090    1.2468 N.am    1  UNL1       -0.2471
     10 N          -2.0413    1.1178    1.2468 N.am    1  UNL1       -0.2471
     11 N           0.0527   -2.3267    1.2468 N.am    1  UNL1       -0.2471
     12 N           1.9887   -1.2090    1.2468 N.am    1  UNL1       -0.2471
     13 N           0.0527    2.3267    1.2468 N.am    1  UNL1       -0.2471
     14 N          -2.0413   -1.1178    1.2468 N.am    1  UNL1       -0.2471
     15 N           1.9887   -1.2090   -1.2468 N.am    1  UNL1       -0.2471
     16 N           0.0527    2.3267   -1.2468 N.am    1  UNL1       -0.2471
     17 N          -2.0413   -1.1178   -1.2468 N.am    1  UNL1       -0.2471
     18 N           1.9887    1.2090   -1.2468 N.am    1  UNL1       -0.2471
     19 C          -1.9072    0.0000   -2.0453 C.2     1  UNL1        0.3102
     20 C           0.9536   -1.6517   -2.0453 C.2     1  UNL1        0.3102
     21 C           0.9536    1.6517    2.0453 C.2     1  UNL1        0.3102
     22 C          -1.9072    0.0000    2.0453 C.2     1  UNL1        0.3102
     23 C           0.9536   -1.6517    2.0453 C.2     1  UNL1        0.3102
     24 C           0.9536    1.6517   -2.0453 C.2     1  UNL1        0.3102
     25 O          -1.7214    0.0000   -3.2132 O.2     1  UNL1       -0.2522
     26 O           0.8607   -1.4908   -3.2132 O.2     1  UNL1       -0.2522
     27 O           0.8607    1.4908    3.2132 O.2     1  UNL1       -0.2522
     28 O          -1.7214    0.0000    3.2132 O.2     1  UNL1       -0.2522
     29 O           0.8607   -1.4908    3.2132 O.2     1  UNL1       -0.2522
     30 O           0.8607    1.4908   -3.2132 O.2     1  UNL1       -0.2522
     31 C          -1.3485    2.3357   -1.6053 C.3     1  UNL1        0.0902
     32 C          -1.3485   -2.3357   -1.6053 C.3     1  UNL1        0.0902
     33 C           2.6971    0.0000    1.6053 C.3     1  UNL1        0.0902
     34 C          -1.3485    2.3357    1.6053 C.3     1  UNL1        0.0902
     35 C          -1.3485   -2.3357    1.6053 C.3     1  UNL1        0.0902
     36 C           2.6971    0.0000   -1.6053 C.3     1  UNL1        0.0902
     37 H          -1.8400    3.1870   -1.1597 H       1  UNL1        0.0676
     38 H          -1.8400   -3.1870   -1.1597 H       1  UNL1        0.0676
     39 H           3.6800    0.0000    1.1597 H       1  UNL1        0.0676
     40 H          -1.8400    3.1870    1.1597 H       1  UNL1        0.0676
     41 H          -1.8400   -3.1870    1.1597 H       1  UNL1        0.0676
     42 H           3.6800    0.0000   -1.1597 H       1  UNL1        0.0676
     43 H          -3.6837    1.1800    0.0000 H       1  UNL1        0.0749
     44 H           0.8200   -3.7802    0.0000 H       1  UNL1        0.0749
     45 H           2.8638   -2.6002    0.0000 H       1  UNL1        0.0749
     46 H           0.8200    3.7802    0.0000 H       1  UNL1        0.0749
     47 H          -3.6837   -1.1800    0.0000 H       1  UNL1        0.0749
     48 H           2.8638    2.6002    0.0000 H       1  UNL1        0.0749
     49 H          -1.4075    2.4379   -2.6747 H       1  UNL1        0.0676
     50 H          -1.4075   -2.4379   -2.6747 H       1  UNL1        0.0676
     51 H           2.8150    0.0000    2.6747 H       1  UNL1        0.0676
     52 H          -1.4075    2.4379    2.6747 H       1  UNL1        0.0676
     53 H          -1.4075   -2.4379    2.6747 H       1  UNL1        0.0676
     54 H           2.8150    0.0000   -2.6747 H       1  UNL1        0.0676
@<TRIPOS>BOND
     1    25    19    2
     2    26    20    2
     3    30    24    2
     4    54    36    1
     5    50    32    1
     6    49    31    1
     7    24    18   am
     8    24    16   am
     9    20     8   am
    10    20    15   am
    11    19     7   am
    12    19    17   am
    13    31     7    1
    14    31    16    1
    15    31    37    1
    16    36    18    1
    17    36    15    1
    18    36    42    1
    19    32     8    1
    20    32    17    1
    21    32    38    1
    22     8     2    1
    23    18     6    1
    24     7     1    1
    25    16     4    1
    26    17     5    1
    27    15     3    1
    28     1    43    1
    29     1     5    1
    30     1    10    1
    31    45     3    1
    32     2    44    1
    33     2     3    1
    34     2    11    1
    35     3    12    1
    36    48     6    1
    37    47     5    1
    38     4    46    1
    39     4     6    1
    40     4    13    1
    41     5    14    1
    42     6     9    1
    43    39    33    1
    44    40    34    1
    45    41    35    1
    46    14    35    1
    47    14    22   am
    48    10    34    1
    49    10    22   am
    50    11    35    1
    51    11    23   am
    52    13    34    1
    53    13    21   am
    54     9    33    1
    55     9    21   am
    56    12    33    1
    57    12    23   am
    58    35    53    1
    59    33    51    1
    60    34    52    1
    61    23    29    2
    62    22    28    2
    63    21    27    2
